<?xml version="1.0" ?>
<net xmlns:xsi="http://www.w3.org/2001/XMLSchema-instance" version="1.3" xsi:noNamespaceSchemaLocation="http://sumo.dlr.de/xsd/net_file.xsd">
  
  <!-- 边界设置 -->
  <location netOffset="0.00,0.00" 
            convBoundary="0.00,-1000.00,2000.00,50.00" 
            origBoundary="0.00,-1000.00,2000.00,50.00" 
            projParameter="!"/>
  
  <!-- 右弯道 (东向车辆右转) -->
  <!-- 半径1000米，弧长2000米，圆心角约114.6度 -->
  <!-- 圆心在(0,-1000)，起点在(1000,0)，终点在(1000+1000*cos(114.6°), -1000+1000*sin(114.6°)) ≈ (1000-416, -1000+910) ≈ (584, -90) -->
  <!-- 但我们从(0,0)开始到(2000,-957.59) -->
  <edge id="E0" from="J0" to="J1" priority="-1">
    <lane id="E0_0" index="0" speed="27.78" length="2000.00" 
          shape="0.00,0.00 100.00,-2.49 200.00,-9.97 300.00,-22.41 400.00,-39.80 500.00,-62.13 600.00,-89.36 700.00,-121.48 800.00,-158.45 900.00,-200.23 1000.00,-246.77 1100.00,-298.02 1200.00,-353.91 1300.00,-414.37 1400.00,-479.32 1500.00,-548.66 1600.00,-622.30 1700.00,-700.13 1800.00,-782.04 1900.00,-867.90 2000.00,-957.59"/>
  </edge>
  
  <!-- 节点定义 -->
  <junction id="J0" type="dead_end" x="0.00" y="0.00" 
            incLanes="" intLanes="" 
            shape="0.00,0.00"/>
            
  <junction id="J1" type="dead_end" x="2000.00" y="-957.59" 
            incLanes="E0_0" intLanes="" 
            shape="2000.00,-957.59"/>
</net>